Version 4
SHEET 1 1380 740
WIRE -304 -384 -720 -384
WIRE 1376 -384 -304 -384
WIRE -272 -320 -736 -320
WIRE 832 -320 -272 -320
WIRE 1168 -320 832 -320
WIRE 1376 -320 1168 -320
WIRE -336 -256 -768 -256
WIRE 800 -256 -336 -256
WIRE 1056 -256 800 -256
WIRE 1376 -256 1056 -256
WIRE -768 -224 -768 -256
WIRE -336 32 -336 -256
WIRE -224 32 -336 32
WIRE 368 32 0 32
WIRE 800 32 800 -256
WIRE 800 32 752 32
WIRE -272 64 -272 -320
WIRE -224 64 -272 64
WIRE 336 64 0 64
WIRE 1168 80 1168 -320
WIRE -224 96 -496 96
WIRE 832 96 832 -320
WIRE 832 96 752 96
WIRE -224 128 -496 128
WIRE 368 128 368 32
WIRE 528 128 368 128
WIRE -224 160 -496 160
WIRE 336 160 336 64
WIRE 528 160 336 160
WIRE -224 192 -496 192
WIRE 528 192 0 192
WIRE 1168 208 1168 160
WIRE 1168 208 992 208
WIRE -336 224 -336 32
WIRE -224 224 -336 224
WIRE 528 224 0 224
WIRE 1168 240 1168 208
WIRE -304 256 -304 -384
WIRE -224 256 -304 256
WIRE 528 256 0 256
WIRE 528 320 64 320
WIRE 528 352 96 352
WIRE 992 352 992 208
WIRE 992 352 752 352
WIRE 528 384 128 384
WIRE 1056 384 1056 -256
WIRE 1168 384 1168 320
WIRE 1168 384 1056 384
WIRE 528 416 160 416
WIRE -336 432 -336 224
WIRE -224 432 -336 432
WIRE 64 432 64 320
WIRE 64 432 0 432
WIRE 528 448 192 448
WIRE -272 464 -272 64
WIRE -224 464 -272 464
WIRE 96 464 96 352
WIRE 96 464 0 464
WIRE -224 496 -496 496
WIRE -224 528 -496 528
WIRE -224 560 -496 560
WIRE -224 592 -496 592
WIRE 128 592 128 384
WIRE 128 592 0 592
WIRE -336 624 -336 432
WIRE -224 624 -336 624
WIRE 160 624 160 416
WIRE 160 624 0 624
WIRE -304 656 -304 256
WIRE -224 656 -304 656
WIRE 192 656 192 448
WIRE 192 656 0 656
FLAG -768 -224 0
FLAG -720 -384 24V
IOPIN -720 -384 In
FLAG -736 -320 5V
IOPIN -736 -320 In
SYMBOL TMC2208 -240 16 R0
SYMATTR InstName X1
SYMBOL TMC2208 -240 416 R0
SYMATTR InstName X2
SYMBOL motor -576 544 R180
SYMATTR InstName X3
SYMBOL motor -576 144 R180
SYMATTR InstName X4
SYMBOL arduino_nano 752 448 R180
SYMATTR InstName X5
SYMBOL res 1152 64 R0
SYMATTR InstName R3
SYMATTR Value 5k
SYMBOL res 1152 224 R0
SYMATTR InstName R4
SYMATTR Value 5k
TEXT -696 192 VLeft 2 ;Channel 1
TEXT -704 600 VLeft 2 ;Channel 2
TEXT 1256 272 VLeft 2 ;Potentiometer
TEXT 1240 664 Left 2 ;proto v0.1
RECTANGLE Normal 1296 336 1104 64 2
